data/mc/ut_trans_EXP_VOLTAGES.CSV
Bus, BasekV, Node1, Magnitude1, Angle1, pu1, Node2, Magnitude2, Angle2, pu2, Node3, Magnitude3, Angle3, pu3
"SOURCEBUS", 11, 1,    6350.85,    0.0,         1, 2,    6350.85, -120.0,         1, 3,    6350.85,  120.0,         1
"1", 11, 1,    4811.48,    6.0,   0.75761, 2,    4811.48, -114.0,   0.75761, 3,    4811.48,  126.0,   0.75761
"2", 4, 1,    474.317,  -17.6,   0.20539, 2,    474.317, -137.6,   0.20539, 3,    474.317,  102.4,   0.20539
"3", 4, 1,  0.0706975,  -44.2, 3.0613E-005, 2,  0.0706975, -164.2, 3.0613E-005, 3,  0.0706975,   75.8, 3.0613E-005
